-- ZeeHub v7 - Full Script (Fly with GUI Speed Slider)

local AcrylicLibrary = loadstring(game:HttpGetAsync("https://raw.githubusercontent.com/Zee4625/Blox-Fruits/refs/heads/main/Zee", true))()
local TextEffect = AcrylicLibrary.TextEffect

AcrylicLibrary.Theme:HightGreen()

local Window = AcrylicLibrary:CreateWindow({
    Title = 
        TextEffect:AddColor("ZeeHUB ", Color3.fromRGB(0, 255, 0)) ..
        TextEffect:AddColor("-PREMIUM-", Color3.fromRGB(255, 20, 147)) ..
        TextEffect:AddColor(" v7", Color3.fromRGB(0, 255, 0)),
    Logo = "rbxassetid://82858721461099",
    Keybind = Enum.KeyCode.LeftControl,
})


local player = game.Players.LocalPlayer
local character = player.Character or player.CharacterAdded:Wait()
local humanoidRootPart = character:WaitForChild("HumanoidRootPart")
local humanoid = character:WaitForChild("Humanoid")

local moveSpeed = 39
local flightActive = false
local flyActive = false
local flyConnection
local bodyGyro, bodyVelocity
local xrayEnabled = false
local spyTarget = nil

local UserInputService = game:GetService("UserInputService")
local RunService = game:GetService("RunService")

-- Rebind when character respawns
local function rebindCharacter()
    character = player.Character or player.CharacterAdded:Wait()
    humanoidRootPart = character:WaitForChild("HumanoidRootPart")
    humanoid = character:WaitForChild("Humanoid")
end

player.CharacterAdded:Connect(rebindCharacter)

-- Movement function for Speed Mode
local function moveWithKeys()
    if not humanoidRootPart then return end
    local direction = Vector3.new(0, 0, 0)

    if UserInputService:IsKeyDown(Enum.KeyCode.W) then
        direction += humanoidRootPart.CFrame.LookVector
    end
    if UserInputService:IsKeyDown(Enum.KeyCode.S) then
        direction -= humanoidRootPart.CFrame.LookVector
    end
    if UserInputService:IsKeyDown(Enum.KeyCode.A) then
        direction -= humanoidRootPart.CFrame.RightVector
    end
    if UserInputService:IsKeyDown(Enum.KeyCode.D) then
        direction += humanoidRootPart.CFrame.RightVector
    end

    humanoidRootPart.Velocity = direction * moveSpeed
end

-- Fly GUI Speed Slider setup
local flySpeedGui = Instance.new("ScreenGui")
flySpeedGui.Name = "FlySpeedGui"
flySpeedGui.ResetOnSpawn = false
flySpeedGui.Parent = player:WaitForChild("PlayerGui")

local frame = Instance.new("Frame")
frame.Size = UDim2.new(0, 180, 0, 60)
frame.Position = UDim2.new(1, -190, 0, 10)
frame.BackgroundColor3 = Color3.fromRGB(20, 20, 20)
frame.BackgroundTransparency = 0.3
frame.BorderSizePixel = 0
frame.Visible = false
frame.Parent = flySpeedGui

local label = Instance.new("TextLabel")
label.Size = UDim2.new(1, 0, 0, 20)
label.Position = UDim2.new(0, 0, 0, 5)
label.BackgroundTransparency = 1
label.Text = "Fly Speed"
label.Font = Enum.Font.SourceSansBold
label.TextColor3 = Color3.fromRGB(0, 255, 0)
label.TextSize = 18
label.Parent = frame

local sliderFrame = Instance.new("Frame")
sliderFrame.Size = UDim2.new(1, -20, 0, 30)
sliderFrame.Position = UDim2.new(0, 10, 0, 25)
sliderFrame.BackgroundColor3 = Color3.fromRGB(50, 50, 50)
sliderFrame.BorderSizePixel = 0
sliderFrame.Parent = frame

local sliderBar = Instance.new("Frame")
sliderBar.Size = UDim2.new(0.39, 0, 1, 0) -- default 39 (moveSpeed)
sliderBar.BackgroundColor3 = Color3.fromRGB(0, 255, 0)
sliderBar.BorderSizePixel = 0
sliderBar.Parent = sliderFrame

local sliderButton = Instance.new("TextButton")
sliderButton.Size = UDim2.new(0, 20, 1, 0)
sliderButton.Position = UDim2.new(0.39, -10, 0, 0)
sliderButton.BackgroundColor3 = Color3.fromRGB(0, 255, 0)
sliderButton.Text = ""
sliderButton.AutoButtonColor = false
sliderButton.Parent = sliderFrame

local dragging = false

local function updateSpeed(inputPosX)
    local relativePos = math.clamp(inputPosX - sliderFrame.AbsolutePosition.X, 0, sliderFrame.AbsoluteSize.X)
    local percent = relativePos / sliderFrame.AbsoluteSize.X
    sliderBar.Size = UDim2.new(percent, 0, 1, 0)
    sliderButton.Position = UDim2.new(percent, -10, 0, 0)
    moveSpeed = math.floor(percent * 100)
    if moveSpeed < 1 then moveSpeed = 1 end -- minimum 1 speed to avoid no movement
end

sliderButton.InputBegan:Connect(function(input)
    if input.UserInputType == Enum.UserInputType.MouseButton1 then
        dragging = true
    end
end)

sliderButton.InputEnded:Connect(function(input)
    if input.UserInputType == Enum.UserInputType.MouseButton1 then
        dragging = false
    end
end)

UserInputService.InputChanged:Connect(function(input)
    if dragging and input.UserInputType == Enum.UserInputType.MouseMovement then
        updateSpeed(input.Position.X)
    end
end)

-- Fly function
local function toggleFly(state)
    flyActive = state
    if flyConnection then flyConnection:Disconnect() end
    if not flyActive then
        if bodyGyro then bodyGyro:Destroy() end
        if bodyVelocity then bodyVelocity:Destroy() end
        frame.Visible = false
        return
    end

    frame.Visible = true

    bodyGyro = Instance.new("BodyGyro")
    bodyGyro.P = 9e4
    bodyGyro.maxTorque = Vector3.new(9e9, 9e9, 9e9)
    bodyGyro.cframe = humanoidRootPart.CFrame
    bodyGyro.Parent = humanoidRootPart

    bodyVelocity = Instance.new("BodyVelocity")
    bodyVelocity.velocity = Vector3.new(0, 0, 0)
    bodyVelocity.maxForce = Vector3.new(9e9, 9e9, 9e9)
    bodyVelocity.Parent = humanoidRootPart

    flyConnection = RunService.Heartbeat:Connect(function()
        if not flyActive then return end
        bodyGyro.cframe = workspace.CurrentCamera.CFrame

        local moveVec = Vector3.new()
        if UserInputService:IsKeyDown(Enum.KeyCode.W) then
            moveVec += workspace.CurrentCamera.CFrame.LookVector
        end
        if UserInputService:IsKeyDown(Enum.KeyCode.S) then
            moveVec -= workspace.CurrentCamera.CFrame.LookVector
        end
        if UserInputService:IsKeyDown(Enum.KeyCode.A) then
            moveVec -= workspace.CurrentCamera.CFrame.RightVector
        end
        if UserInputService:IsKeyDown(Enum.KeyCode.D) then
            moveVec += workspace.CurrentCamera.CFrame.RightVector
        end
        if UserInputService:IsKeyDown(Enum.KeyCode.Space) then
            moveVec += Vector3.new(0, 1, 0)
        end
        if UserInputService:IsKeyDown(Enum.KeyCode.LeftControl) then
            moveVec -= Vector3.new(0, 1, 0)
        end

        if moveVec.Magnitude > 0 then
            bodyVelocity.velocity = moveVec.Unit * moveSpeed
        else
            bodyVelocity.velocity = Vector3.new(0, 0, 0)
        end
    end)
end

-- Jump
local function activateJump()
    if humanoid then
        humanoid.JumpPower = 200
    end
end

-- Wallhack
local function toggleWallHack()
    if not character then return end
    for _, part in pairs(character:GetDescendants()) do
        if part:IsA("BasePart") then
            part.CanCollide = false
        end
    end
end

-- X-Ray
local function activateXRay()
    local function highlightPlayers()
        for _, p in pairs(game.Players:GetPlayers()) do
            if p ~= player and p.Character and p.Character:FindFirstChild("HumanoidRootPart") then
                if not p.Character:FindFirstChild("PlayerHighlight") then
                    local highlight = Instance.new("Highlight")
                    highlight.Name = "PlayerHighlight"
                    highlight.FillColor = Color3.fromRGB(255, 255, 255)
                    highlight.FillTransparency = 0.3
                    highlight.OutlineColor = Color3.fromRGB(255, 255, 255)
                    highlight.OutlineTransparency = 0
                    highlight.Parent = p.Character
                end
            end
        end
    end
    highlightPlayers()
    while xrayEnabled do
        task.wait(4)
        for _, p in pairs(game.Players:GetPlayers()) do
            if p.Character then
                local h = p.Character:FindFirstChild("PlayerHighlight")
                if h then h:Destroy() end
            end
        end
        if xrayEnabled then highlightPlayers() end
    end
end

RunService.Heartbeat:Connect(function()
    if flightActive then
        moveWithKeys()
    end
end)

-- Tabs
local TabMovement = Window:AddTab({Title = "HOME", Icon = "home"})

TabMovement:AddToggle({
    Title = "Speed Mode",
    Tip = "Activate Speed Movement",
    Default = false,
    Callback = function(val)
        flightActive = val
    end,
})

TabMovement:AddToggle({
    Title = "Jump Boost",
    Tip = "Enable High Jump",
    Default = false,
    Callback = function(val)
        if val then
            activateJump()
        else
            if humanoid then humanoid.JumpPower = 50 end
        end
    end,
})

TabMovement:AddToggle({
    Title = "Wallhack",
    Tip = "Pass through walls",
    Default = false,
    Callback = function(val)
        if val then
            toggleWallHack()
        else
            -- Reset CanCollide to true on toggle off (optional)
            if character then
                for _, part in pairs(character:GetDescendants()) do
                    if part:IsA("BasePart") then
                        part.CanCollide = true
                    end
                end
            end
        end
    end,
})

TabMovement:AddToggle({
    Title = "Fly",
    Tip = "Toggle Fly mode with speed control",
    Default = false,
    Callback = function(val)
        toggleFly(val)
    end,
})

TabMovement:AddButton({
    Title = "Rejoin",
    Tip = "Click to rejoin the game",
    Callback = function()
        game:GetService("TeleportService"):Teleport(game.PlaceId)
    end,
})


-- ESP Tab
local TabESP = Window:AddTab({Title = "ESP", Icon = "eye"})

TabESP:AddToggle({
    Title = "X-ray",
    Tip = "Highlight Players",
    Default = false,
    Callback = function(val)
        xrayEnabled = val
        if val then
            task.spawn(activateXRay)
        else
            for _, p in pairs(game.Players:GetPlayers()) do
                if p.Character then
                    local h = p.Character:FindFirstChild("PlayerHighlight")
                    if h then h:Destroy() end
                end
            end
        end
    end,
})

-- Player dropdown for Spy
local function GetOnlinePlayers()
    local players = {}
    for _, p in pairs(game.Players:GetPlayers()) do
        table.insert(players, p.Name)
    end
    return players
end

local Dropdown

local function UpdateDropdown()
    if Dropdown then
        Dropdown:SetValues(GetOnlinePlayers())
    end
end

Dropdown = TabESP:AddDropdown({
    Title = "Spy",
    Values = GetOnlinePlayers(),
    Default = "",
    Multi = false,
    MaxMulti = 1,
    Callback = function(val)
        local target = game.Players:FindFirstChild(val)
        if target and target.Character then
            spyTarget = target
            game.Workspace.CurrentCamera.CameraSubject = target.Character:FindFirstChild("Humanoid")
        end
    end,
})

-- Teleport to selected player
TabESP:AddButton({
    Title = "Teleport to Player",
    Tip = "Teleport to selected player",
    Callback = function()
        if spyTarget and spyTarget.Character and spyTarget.Character:FindFirstChild("HumanoidRootPart") then
            humanoidRootPart.CFrame = spyTarget.Character.HumanoidRootPart.CFrame + Vector3.new(0, 3, 0)
        end
    end,
})

-- Reset camera to self
TabESP:AddButton({
    Title = "Reset Camera",
    Tip = "Reset camera to self",
    Callback = function()
        if character:FindFirstChild("Humanoid") then
            game.Workspace.CurrentCamera.CameraSubject = character:FindFirstChild("Humanoid")
        end
    end,
})



-- Update dropdown constantly
task.spawn(function()
    while true do
        UpdateDropdown()
        task.wait(1)
    end
end)

-- Collab Tab
local TabCollab = Window:AddTab({Title = "COLLAB", Icon = "users"})



TabCollab:AddButton({
    Title = "Zee and Cars.HB",
    Tip = "Run collaborative script by Zee and Cars.HB",
    Callback = function()
        loadstring(game:HttpGetAsync("https://raw.githubusercontent.com/Zee4625/Blox-Fruits/refs/heads/main/car", true))()
    end,
})

TabCollab:AddButton({
    Title = "Zee and Invincible.Fly",
    Tip = "Run collaborative script by Zee and Invincible.Fly",
    Callback = function()
        loadstring(game:HttpGetAsync("https://raw.githubusercontent.com/Zee4625/Blox-Fruits/refs/heads/main/FLY", true))()
    end,
})

TabCollab:AddButton({
    Title = "Zee and Invincible.FlyV2",
    Tip = "Run collaborative script by Zee and Invincible.FlyV2",
    Callback = function()
        loadstring(game:HttpGetAsync("https://raw.githubusercontent.com/Zee4625/Blox-Fruits/refs/heads/main/INVFLY2", true))()
    end,
})




TabCollab:AddButton({
    Title = "Zee and Invisible.y",
    Tip = "Run collaborative script by Zee and Invisible.y",
    Callback = function()
        loadstring(game:HttpGetAsync("https://raw.githubusercontent.com/Zee4625/Blox-Fruits/refs/heads/main/SPYME", true))()
    end,
})


TabCollab:AddButton({
    Title = "Zee and RETURN BY DEATH!",
    Tip = "Run collaborative script by Zee and RETURN BY DEATH!",
    Callback = function()
        loadstring(game:HttpGetAsync("https://raw.githubusercontent.com/Zee4625/Blox-Fruits/refs/heads/main/RETURNBYD", true))()
    end,
})

TabCollab:AddButton({
    Title = "Zee and Altar",
    Tip = "Run collaborative script by Zee and Altar",
    Callback = function()
        loadstring(game:HttpGetAsync("https://raw.githubusercontent.com/Zee4625/Blox-Fruits/refs/heads/main/ALT", true))()
    end,
})

TabCollab:AddButton({
    Title = "Zee and Jerk.ANIM",
    Tip = "Run collaborative script by Zee and Jerk.ANIM",
    Callback = function()
        loadstring(game:HttpGetAsync("https://raw.githubusercontent.com/Zee4625/Blox-Fruits/refs/heads/main/JERCCC", true))()
    end,
})

TabCollab:AddButton({
    Title = "Zee and Wally",
    Tip = "Run collaborative script by Zee and Wally Hold Q",
    Callback = function()
        loadstring(game:HttpGetAsync("https://raw.githubusercontent.com/Zee4625/Blox-Fruits/refs/heads/main/WALLY", true))()
    end,
})


TabCollab:AddButton({
    Title = "Zee and NarX",
    Tip = "Run collaborative script by Zee and NarX",
    Callback = function()
        loadstring(game:HttpGetAsync("https://raw.githubusercontent.com/Zee4625/Blox-Fruits/refs/heads/main/NARUTo", true))()
    end,
})




-- Collab Tab
local TabCollab1 = Window:AddTab({Title = "COLLAB-Ui", Icon = "table"})

TabCollab1:AddButton({
    Title = "Zee and Piano",
    Tip = "Run collaborative script by Zee and Piano",
    Callback = function()
        loadstring(game:HttpGetAsync("https://raw.githubusercontent.com/Zee4625/Blox-Fruits/refs/heads/main/Piano", true))()
    end,
})

TabCollab1:AddButton({
    Title = "Zee and Zombie.Anim",
    Tip = "Run collaborative script by Zee and Zombie.Anim",
    Callback = function()
        loadstring(game:HttpGetAsync("https://raw.githubusercontent.com/Zee4625/Blox-Fruits/refs/heads/main/ZOMBIUUU", true))()
    end,
})

TabCollab1:AddButton({
    Title = "Zee and R15.ANIM",
    Tip = "Run collaborative script by Zee and R15.ANIM",
    Callback = function()
        loadstring(game:HttpGetAsync("https://raw.githubusercontent.com/Zee4625/Blox-Fruits/refs/heads/main/r154", true))()
    end,
})

TabCollab1:AddButton({
    Title = "Zee and CoolKID.HUBs",
    Tip = "Run collaborative script by Zee and CooKID",
    Callback = function()
loadstring(game:HttpGetAsync("https://raw.githubusercontent.com/Zee4625/Blox-Fruits/refs/heads/main/COOLKID", true))()
    end,
})







-- Collab GAMES
local TabGamm = Window:AddTab({Title = "Games", Icon = "infinity"})

TabGamm:AddButton({
    Title = "Hunty Zombies",
    Tip = "Run collaborative script Hunty Zombies",
    Callback = function()
        loadstring(game:HttpGetAsync("https://raw.githubusercontent.com/Zee4625/Blox-Fruits/refs/heads/main/ZMBO", true))()
    end,
})

TabGamm:AddButton({
    Title = "BlueLock Rivals",
    Tip = "Run collaborative script BlueLock Rivals",
    Callback = function()
        loadstring(game:HttpGetAsync("https://raw.githubusercontent.com/Zee4625/Blox-Fruits/refs/heads/main/BBQ", true))()
    end,
})

TabGamm:AddButton({
    Title = "Grow A Garden",
    Tip = "Run collaborative script Grow A Garden",
    Callback = function()
        loadstring(game:HttpGetAsync("https://raw.githubusercontent.com/Zee4625/Blox-Fruits/refs/heads/main/GRO", true))()
    end,
})


TabGamm:AddButton({
    Title = "JJK",
    Tip = "Run collaborative script JJK",
    Callback = function()
        loadstring(game:HttpGetAsync("https://raw.githubusercontent.com/Zee4625/Blox-Fruits/refs/heads/main/JJK-X", true))()
    end,
})

TabGamm:AddButton({
    Title = "MM2",
    Tip = "Run collaborative script MM2",
    Callback = function()
        loadstring(game:HttpGetAsync("https://raw.githubusercontent.com/Zee4625/Blox-Fruits/refs/heads/main/M2FS", true))()
    end,
})

TabGamm:AddButton({
    Title = "99 Nights",
    Tip = "Run collaborative script 99 Nights",
    Callback = function()
        loadstring(game:HttpGetAsync("https://raw.githubusercontent.com/Zee4625/Blox-Fruits/refs/heads/main/99FOR", true))()
    end,
})

TabGamm:AddButton({
    Title = "Wierd Gun Game",
    Tip = "Run collaborative script Wierd Gun Game",
    Callback = function()
        loadstring(game:HttpGetAsync("https://raw.githubusercontent.com/Zee4625/Blox-Fruits/refs/heads/main/WGUN", true))()
    end,
})

TabGamm:AddButton({
    Title = "Blox Fruits",
    Tip = "Run collaborative script Blox Fruits",
    Callback = function()
        loadstring(game:HttpGetAsync("https://raw.githubusercontent.com/Zee4625/Blox-Fruits/refs/heads/main/Xz0", true))()
    end,
})

TabGamm:AddButton({
    Title = "Driving Empire",
    Tip = "Run collaborative script Driving Empire",
    Callback = function()
        loadstring(game:HttpGetAsync("https://raw.githubusercontent.com/Zee4625/Blox-Fruits/refs/heads/main/CARSSS", true))()
    end,
})

-- Info Tab
local Tabinfo = Window:AddTab({Title = "INFO", Icon = "Zee"})

Tabinfo:AddParagraph({
    Title = "Info",
    Description = AcrylicLibrary:HightlightSource([[Hi, this hub is still under development!
Don't forget to join our discord server!

server:
https://discord.gg/ecKrSHRZa6]])
})

Window:Notify({
    Title = "⚠️⚠️⚠️Important⚠️⚠️⚠️",
    Description = "This is still a beta! Join the discord for more info! THIS IS FOR ANY GAME BUT IS THE BETA!!",
    Duration = 12,
})
